src/test/resources/netPositionsData/20190618_0030_2D2_CZ0.UCT
##C 2007.05.01

##N
##ZCZ
ASLACK11 SLACK        0 2 400.00    0.00    0.00    0.00    0.00  984.07    0.00                                        
ALOAD111 LOAD         1 2 400.00    0.00    0.00    0.00    0.00    0.00    0.00                                        
ADU SL11 SHADOW       1 2 400.00    0.00    0.00    0.00    0.00  997.37    0.00
##ZXX
XDU_SL11 CORE         1 0 400.00    0.00    0.00    0.00    0.00    0.00    0.00                                        
##L
ADU SL11 XDU_SL11 1 0   0.00   0.00    0.00   5000
##T
##R
